  0
SECTION
  2
ENTITIES
999
DXF created from EnergyPlus
999
Program Version,EnergyPlus, Version 8.6.0-198c6a3cff, YMD=2017.10.25 14:26
999
Polygon Action,TRIANGULATE3DFACE
999
Color Scheme,Default
999
Text - True North
  0
TEXT
  8
1
  6
Continuous
 62
  3
 10
       -9.43974
 20
       -1.01922
 30
        0.10000
 40
 .25
  1
True North
 41
 0.0
  7
MONOTXT
210
0.0
220
0.0
230
1.0
999
Text - Building Title
  0
TEXT
  8
1
  6
Continuous
 62
  3
 10
      -12.43974
 20
       -5.01922
 30
        0.10000
 40
 .4
  1
Building - bldg-1
 41
 0.0
  7
MONOTXT
210
0.0
220
0.0
230
1.0
999
North Arrow Stem
  0
3DFACE
  8
1
 62
  3
 10
       -8.43974
 20
       -1.01922
 30
        0.10000
 11
       -8.43974
 21
       -1.01922
 31
        0.00000
 12
       -8.43974
 22
       -4.01922
 32
        0.00000
 13
       -8.43974
 23
       -4.01922
 33
        0.10000
999
North Arrow Head 1
  0
3DFACE
  8
1
 62
  3
 10
       -8.43974
 20
       -1.01922
 30
        0.10000
 11
       -8.43974
 21
       -1.01922
 31
        0.00000
 12
       -8.93974
 22
       -1.88524
 32
        0.00000
 13
       -8.93974
 23
       -1.88524
 33
        0.10000
999
North Arrow Head 2
  0
3DFACE
  8
1
 62
  3
 10
       -8.43974
 20
       -1.01922
 30
        0.10000
 11
       -8.43974
 21
       -1.01922
 31
        0.00000
 12
       -7.93973
 22
       -1.88524
 32
        0.00000
 13
       -7.93973
 23
       -1.88524
 33
        0.10000
999
North Arrow Side 1
  0
3DFACE
  8
1
 62
  3
 10
       -8.93974
 20
        0.48078
 30
        0.10000
 11
       -8.93974
 21
        0.48078
 31
        0.00000
 12
       -8.93974
 22
       -0.51922
 32
        0.00000
 13
       -8.93974
 23
       -0.51922
 33
        0.10000
999
North Arrow Side 2
  0
3DFACE
  8
1
 62
  3
 10
       -8.93974
 20
        0.48078
 30
        0.10000
 11
       -8.93974
 21
        0.48078
 31
        0.00000
 12
       -7.93973
 22
       -0.51922
 32
        0.00000
 13
       -7.93973
 23
       -0.51922
 33
        0.10000
999
North Arrow Side 3
  0
3DFACE
  8
1
 62
  3
 10
       -7.93973
 20
        0.48078
 30
        0.10000
 11
       -7.93973
 21
        0.48078
 31
        0.00000
 12
       -7.93973
 22
       -0.51922
 32
        0.00000
 13
       -7.93973
 23
       -0.51922
 33
        0.10000
999
Zone Names
999
Zone=1:AIM0024_AIM0206
999
Zone=2:AIM0015_AIM0117
999
Zone=3:AIM0015_AIM0033
999
Zone=4:AIM0024_AIM0164
999
Zone=5:AIM0015_AIM0075
999
AIM0024:AIM0206:S-1-5-I-W-8_REVERSED
  0
3DFACE
  8
AIM0024_AIM0206
 62
 43
 10
        1.56027
 20
        6.64878
 30
        3.96200
 11
       13.75226
 21
        6.64878
 31
        3.96240
 12
       13.75226
 22
        6.64878
 32
        3.96200
 13
       13.75226
 23
        6.64878
 33
        3.96200
999
AIM0024:AIM0206:W-3-5-I-W-24_REVERSED
  0
3DFACE
  8
AIM0024_AIM0206
 62
 43
 10
       13.75226
 20
       -4.01922
 30
        3.96200
 11
       13.75226
 21
        6.64878
 31
        3.96200
 12
       13.75226
 22
       -3.94302
 32
        3.96240
 13
       13.75226
 23
       -3.94302
 33
        3.96240
  0
3DFACE
  8
AIM0024_AIM0206
 62
 43
 10
       13.75226
 20
       -4.01922
 30
        3.96200
 11
       13.75226
 21
       -3.94302
 31
        3.96240
 12
       13.75226
 22
       -3.94302
 32
        7.92480
 13
       13.75226
 23
       -3.94302
 33
        7.92480
  0
3DFACE
  8
AIM0024_AIM0206
 62
 43
 10
       13.75226
 20
       -3.94302
 30
        7.92480
 11
       13.75226
 21
        6.64878
 31
        7.92480
 12
       13.75226
 22
        6.64878
 32
        8.43980
 13
       13.75226
 23
        6.64878
 33
        8.43980
  0
3DFACE
  8
AIM0024_AIM0206
 62
 43
 10
       13.75226
 20
       -3.94302
 30
        7.92480
 11
       13.75226
 21
        6.64878
 31
        8.43980
 12
       13.75226
 22
       -4.01922
 32
        8.43980
 13
       13.75226
 23
       -4.01922
 33
        8.43980
  0
3DFACE
  8
AIM0024_AIM0206
 62
 43
 10
       13.75226
 20
       -4.01922
 30
        3.96200
 11
       13.75226
 21
       -3.94302
 31
        7.92480
 12
       13.75226
 22
       -4.01922
 32
        8.43980
 13
       13.75226
 23
       -4.01922
 33
        8.43980
999
AIM0024:AIM0206:W-3-5-I-W-25_REVERSED
  0
3DFACE
  8
AIM0024_AIM0206
 62
 43
 10
       13.75226
 20
       -3.94302
 30
        3.96240
 11
       13.75226
 21
        6.64878
 31
        3.96240
 12
       13.75226
 22
        6.64878
 32
        7.92480
 13
       13.75226
 23
       -3.94302
 33
        7.92480
999
AIM0024:AIM0206:S-4-5-I-W-29_REVERSED
  0
3DFACE
  8
AIM0024_AIM0206
 62
 43
 10
        1.56027
 20
        6.64878
 30
        3.96240
 11
        1.56027
 21
        6.64878
 31
        8.43980
 12
       13.75226
 22
        6.64878
 32
        8.43980
 13
       13.75226
 23
        6.64878
 33
        3.96240
999
AIM0024:AIM0206:S-5-E-W-30
  0
3DFACE
  8
AIM0024_AIM0206
 62
 43
 10
        1.56027
 20
       -4.01922
 30
        8.43980
 11
        1.56027
 21
       -4.01922
 31
        3.96200
 12
       13.75226
 22
       -4.01922
 32
        3.96200
 13
       13.75226
 23
       -4.01922
 33
        8.43980
999
AIM0024:AIM0206:S-5-E-W-30-W-1
  0
3DFACE
  8
AIM0024_AIM0206
 62
143
 10
        2.24647
 20
       -4.01922
 30
        7.86480
 11
        2.24647
 21
       -4.01922
 31
        5.36480
 12
        6.47407
 22
       -4.01922
 32
        5.36480
 13
        6.47407
 23
       -4.01922
 33
        7.86480
999
AIM0024:AIM0206:S-5-E-W-30-W-2
  0
3DFACE
  8
AIM0024_AIM0206
 62
143
 10
        8.53847
 20
       -4.01922
 30
        7.86480
 11
        8.53847
 21
       -4.01922
 31
        5.36480
 12
       12.76606
 22
       -4.01922
 32
        5.36480
 13
       12.76606
 23
       -4.01922
 33
        7.86480
999
AIM0024:AIM0206:W-5-E-W-31
  0
3DFACE
  8
AIM0024_AIM0206
 62
 43
 10
        1.56027
 20
        6.64878
 30
        3.96200
 11
        1.56027
 21
       -4.01922
 31
        3.96200
 12
        1.56027
 22
       -4.01922
 32
        8.43980
 13
        1.56027
 23
        6.64878
 33
        8.43980
999
AIM0024:AIM0206:W-5-E-W-31-W-1
  0
3DFACE
  8
AIM0024_AIM0206
 62
143
 10
        1.56027
 20
        5.26258
 30
        5.36480
 11
        1.56027
 21
        2.04298
 31
        5.36480
 12
        1.56027
 22
        2.04298
 32
        7.86480
 13
        1.56027
 23
        5.26258
 33
        7.86480
999
AIM0024:AIM0206:W-5-E-W-31-W-2
  0
3DFACE
  8
AIM0024_AIM0206
 62
143
 10
        1.56027
 20
       -0.12342
 30
        5.36480
 11
        1.56027
 21
       -3.34302
 31
        5.36480
 12
        1.56027
 22
       -3.34302
 32
        7.86480
 13
        1.56027
 23
       -0.12342
 33
        7.86480
999
AIM0024:AIM0206:X-1-5-I-O-7_REVERSED
  0
3DFACE
  8
AIM0024_AIM0206
 62
 15
 10
       13.75226
 20
        0.55278
 30
        3.96200
 11
       13.75226
 21
        6.64878
 31
        3.96200
 12
        1.56027
 22
        6.64878
 32
        3.96200
 13
        1.56027
 23
        0.55278
 33
        3.96200
999
AIM0024:AIM0206:X-2-5-I-O-13_REVERSED
  0
3DFACE
  8
AIM0024_AIM0206
 62
 15
 10
       13.75226
 20
       -4.01922
 30
        3.96200
 11
       13.75226
 21
        0.55278
 31
        3.96200
 12
        1.56027
 22
        0.55278
 32
        3.96200
 13
        1.56027
 23
       -4.01922
 33
        3.96200
999
AIM0024:AIM0206:T-5-E-R-32
  0
3DFACE
  8
AIM0024_AIM0206
 62
 15
 10
        1.56027
 20
        6.64878
 30
        8.43980
 11
        1.56027
 21
       -4.01922
 31
        8.43980
 12
       13.75226
 22
       -4.01922
 32
        8.43980
 13
       13.75226
 23
        6.64878
 33
        8.43980
999
AIM0015:AIM0117:E-1-3-I-W-5_REVERSED
  0
3DFACE
  8
AIM0015_AIM0117
 62
 43
 10
       13.75226
 20
        0.55278
 30
        0.00000
 11
       13.75226
 21
        0.55278
 31
        3.96200
 12
       13.75226
 22
        6.64878
 32
        3.96200
 13
       13.75226
 23
        6.64878
 33
        3.96200
  0
3DFACE
  8
AIM0015_AIM0117
 62
 43
 10
       13.75226
 20
        0.55278
 30
        0.00000
 11
       13.75226
 21
        6.64878
 31
        3.96200
 12
       13.75226
 22
       11.22078
 32
        3.96240
 13
       13.75226
 23
       11.22078
 33
        3.96240
  0
3DFACE
  8
AIM0015_AIM0117
 62
 43
 10
       13.75226
 20
        0.55278
 30
        0.00000
 11
       13.75226
 21
       11.22078
 31
        3.96240
 12
       13.75226
 22
       11.22078
 32
        0.00000
 13
       13.75226
 23
       11.22078
 33
        0.00000
999
AIM0015:AIM0117:E-2-3-I-W-12_REVERSED
  0
3DFACE
  8
AIM0015_AIM0117
 62
 43
 10
       13.75226
 20
       -4.01922
 30
        0.00000
 11
       13.75226
 21
       -4.01922
 31
        3.96200
 12
       13.75226
 22
        0.55278
 32
        3.96200
 13
       13.75226
 23
        0.55278
 33
        0.00000
999
AIM0015:AIM0117:N-3-E-W-14
  0
3DFACE
  8
AIM0015_AIM0117
 62
 43
 10
       28.99226
 20
       11.22078
 30
        0.00000
 11
       13.75226
 21
       11.22078
 31
        0.00000
 12
       13.75226
 22
       11.22078
 32
        3.96240
 13
       28.99226
 23
       11.22078
 33
        3.96240
999
AIM0015:AIM0117:N-3-E-W-14-W-1
  0
3DFACE
  8
AIM0015_AIM0117
 62
143
 10
       20.26607
 20
       11.22078
 30
        1.40240
 11
       16.03847
 21
       11.22078
 31
        1.40240
 12
       16.03847
 22
       11.22078
 32
        3.90240
 13
       20.26607
 23
       11.22078
 33
        3.90240
999
AIM0015:AIM0117:N-3-E-W-14-W-2
  0
3DFACE
  8
AIM0015_AIM0117
 62
143
 10
       27.70606
 20
       11.22078
 30
        1.40240
 11
       23.47846
 21
       11.22078
 31
        1.40240
 12
       23.47846
 22
       11.22078
 32
        3.90240
 13
       27.70606
 23
       11.22078
 33
        3.90240
999
AIM0015:AIM0117:E-3-E-W-15
  0
3DFACE
  8
AIM0015_AIM0117
 62
 43
 10
       28.99226
 20
       -4.01922
 30
        3.96240
 11
       28.99226
 21
       -4.01922
 31
        0.00000
 12
       28.99226
 22
       11.22078
 32
        0.00000
 13
       28.99226
 23
       11.22078
 33
        0.00000
  0
3DFACE
  8
AIM0015_AIM0117
 62
 43
 10
       28.99226
 20
       11.22078
 30
        8.43980
 11
       28.99226
 21
       -4.01922
 31
        8.43980
 12
       28.99226
 22
       -4.01922
 32
        7.92480
 13
       28.99226
 23
       -4.01922
 33
        7.92480
  0
3DFACE
  8
AIM0015_AIM0117
 62
 43
 10
       28.99226
 20
       11.22078
 30
        8.43980
 11
       28.99226
 21
       -4.01922
 31
        7.92480
 12
       28.99226
 22
       11.14458
 32
        7.92480
 13
       28.99226
 23
       11.14458
 33
        7.92480
  0
3DFACE
  8
AIM0015_AIM0117
 62
 43
 10
       28.99226
 20
       11.22078
 30
        0.00000
 11
       28.99226
 21
       11.22078
 31
        8.43980
 12
       28.99226
 22
       11.14458
 32
        7.92480
 13
       28.99226
 23
       11.14458
 33
        7.92480
  0
3DFACE
  8
AIM0015_AIM0117
 62
 43
 10
       28.99226
 20
       11.22078
 30
        0.00000
 11
       28.99226
 21
       11.14458
 31
        7.92480
 12
       28.99226
 22
       11.14458
 32
        3.96240
 13
       28.99226
 23
       11.14458
 33
        3.96240
  0
3DFACE
  8
AIM0015_AIM0117
 62
 43
 10
       28.99226
 20
       -4.01922
 30
        3.96240
 11
       28.99226
 21
       11.22078
 31
        0.00000
 12
       28.99226
 22
       11.14458
 32
        3.96240
 13
       28.99226
 23
       11.14458
 33
        3.96240
999
AIM0015:AIM0117:E-3-E-W-15-W-1
  0
3DFACE
  8
AIM0015_AIM0117
 62
143
 10
       28.99226
 20
        7.31098
 30
        3.90240
 11
       28.99226
 21
        7.31098
 31
        1.40240
 12
       28.99226
 22
       10.53058
 32
        1.40240
 13
       28.99226
 23
       10.53058
 33
        3.90240
999
AIM0015:AIM0117:E-3-E-W-15-W-2
  0
3DFACE
  8
AIM0015_AIM0117
 62
143
 10
       28.99226
 20
        1.94298
 30
        3.90240
 11
       28.99226
 21
        1.94298
 31
        1.40240
 12
       28.99226
 22
        5.16258
 32
        1.40240
 13
       28.99226
 23
        5.16258
 33
        3.90240
999
AIM0015:AIM0117:E-3-E-W-15-W-3
  0
3DFACE
  8
AIM0015_AIM0117
 62
143
 10
       28.99226
 20
       -3.34302
 30
        3.90240
 11
       28.99226
 21
       -3.34302
 31
        1.40240
 12
       28.99226
 22
       -0.12342
 32
        1.40240
 13
       28.99226
 23
       -0.12342
 33
        3.90240
999
AIM0015:AIM0117:S-3-E-W-16
  0
3DFACE
  8
AIM0015_AIM0117
 62
 43
 10
       13.75226
 20
       -4.01922
 30
        3.96240
 11
       13.75226
 21
       -4.01922
 31
        0.00000
 12
       28.99226
 22
       -4.01922
 32
        0.00000
 13
       28.99226
 23
       -4.01922
 33
        0.00000
  0
3DFACE
  8
AIM0015_AIM0117
 62
 43
 10
       28.99226
 20
       -4.01922
 30
        8.43980
 11
       13.75226
 21
       -4.01922
 31
        8.43980
 12
       13.75226
 22
       -4.01922
 32
        7.92480
 13
       13.75226
 23
       -4.01922
 33
        7.92480
  0
3DFACE
  8
AIM0015_AIM0117
 62
 43
 10
       28.99226
 20
       -4.01922
 30
        8.43980
 11
       13.75226
 21
       -4.01922
 31
        7.92480
 12
       28.91607
 22
       -4.01922
 32
        7.92480
 13
       28.91607
 23
       -4.01922
 33
        7.92480
  0
3DFACE
  8
AIM0015_AIM0117
 62
 43
 10
       28.99226
 20
       -4.01922
 30
        0.00000
 11
       28.99226
 21
       -4.01922
 31
        8.43980
 12
       28.91607
 22
       -4.01922
 32
        7.92480
 13
       28.91607
 23
       -4.01922
 33
        7.92480
  0
3DFACE
  8
AIM0015_AIM0117
 62
 43
 10
       28.99226
 20
       -4.01922
 30
        0.00000
 11
       28.91607
 21
       -4.01922
 31
        7.92480
 12
       28.91607
 22
       -4.01922
 32
        3.96240
 13
       28.91607
 23
       -4.01922
 33
        3.96240
  0
3DFACE
  8
AIM0015_AIM0117
 62
 43
 10
       13.75226
 20
       -4.01922
 30
        3.96240
 11
       28.99226
 21
       -4.01922
 31
        0.00000
 12
       28.91607
 22
       -4.01922
 32
        3.96240
 13
       28.91607
 23
       -4.01922
 33
        3.96240
999
AIM0015:AIM0117:S-3-E-W-16-W-1
  0
3DFACE
  8
AIM0015_AIM0117
 62
143
 10
       16.03847
 20
       -4.01922
 30
        3.90240
 11
       16.03847
 21
       -4.01922
 31
        1.40240
 12
       20.26607
 22
       -4.01922
 32
        1.40240
 13
       20.26607
 23
       -4.01922
 33
        3.90240
999
AIM0015:AIM0117:S-3-E-W-16-W-2
  0
3DFACE
  8
AIM0015_AIM0117
 62
143
 10
       23.47846
 20
       -4.01922
 30
        3.90240
 11
       23.47846
 21
       -4.01922
 31
        1.40240
 12
       27.70606
 22
       -4.01922
 32
        1.40240
 13
       27.70606
 23
       -4.01922
 33
        3.90240
999
AIM0015:AIM0117:N-3-E-W-17
  0
3DFACE
  8
AIM0015_AIM0117
 62
 43
 10
       28.99226
 20
       11.22078
 30
        3.96240
 11
       13.75226
 21
       11.22078
 31
        3.96240
 12
       13.75226
 22
       11.22078
 32
        8.43980
 13
       28.99226
 23
       11.22078
 33
        8.43980
999
AIM0015:AIM0117:N-3-E-W-17-W-1
  0
3DFACE
  8
AIM0015_AIM0117
 62
143
 10
       20.26607
 20
       11.22078
 30
        5.36480
 11
       16.03847
 21
       11.22078
 31
        5.36480
 12
       16.03847
 22
       11.22078
 32
        7.86480
 13
       20.26607
 23
       11.22078
 33
        7.86480
999
AIM0015:AIM0117:N-3-E-W-17-W-2
  0
3DFACE
  8
AIM0015_AIM0117
 62
143
 10
       27.70606
 20
       11.22078
 30
        5.36480
 11
       23.47846
 21
       11.22078
 31
        5.36480
 12
       23.47846
 22
       11.22078
 32
        7.86480
 13
       27.70606
 23
       11.22078
 33
        7.86480
999
AIM0015:AIM0117:E-3-E-W-18
  0
3DFACE
  8
AIM0015_AIM0117
 62
 43
 10
       28.99226
 20
       -4.01922
 30
        7.92480
 11
       28.99226
 21
       -4.01922
 31
        3.96240
 12
       28.99226
 22
       11.14458
 32
        3.96240
 13
       28.99226
 23
       11.14458
 33
        7.92480
999
AIM0015:AIM0117:E-3-E-W-18-W-1
  0
3DFACE
  8
AIM0015_AIM0117
 62
143
 10
       28.99226
 20
        7.32498
 30
        7.86480
 11
       28.99226
 21
        7.32498
 31
        5.36480
 12
       28.99226
 22
       10.54458
 32
        5.36480
 13
       28.99226
 23
       10.54458
 33
        7.86480
999
AIM0015:AIM0117:E-3-E-W-18-W-2
  0
3DFACE
  8
AIM0015_AIM0117
 62
143
 10
       28.99226
 20
        1.94298
 30
        7.86480
 11
       28.99226
 21
        1.94298
 31
        5.36480
 12
       28.99226
 22
        5.16258
 32
        5.36480
 13
       28.99226
 23
        5.16258
 33
        7.86480
999
AIM0015:AIM0117:E-3-E-W-18-W-3
  0
3DFACE
  8
AIM0015_AIM0117
 62
143
 10
       28.99226
 20
       -3.34302
 30
        7.86480
 11
       28.99226
 21
       -3.34302
 31
        5.36480
 12
       28.99226
 22
       -0.12342
 32
        5.36480
 13
       28.99226
 23
       -0.12342
 33
        7.86480
999
AIM0015:AIM0117:S-3-E-W-19
  0
3DFACE
  8
AIM0015_AIM0117
 62
 43
 10
       13.75226
 20
       -4.01922
 30
        7.92480
 11
       13.75226
 21
       -4.01922
 31
        3.96240
 12
       28.91607
 22
       -4.01922
 32
        3.96240
 13
       28.91607
 23
       -4.01922
 33
        7.92480
999
AIM0015:AIM0117:S-3-E-W-19-W-1
  0
3DFACE
  8
AIM0015_AIM0117
 62
143
 10
       16.03847
 20
       -4.01922
 30
        7.86480
 11
       16.03847
 21
       -4.01922
 31
        5.36480
 12
       20.26607
 22
       -4.01922
 32
        5.36480
 13
       20.26607
 23
       -4.01922
 33
        7.86480
999
AIM0015:AIM0117:S-3-E-W-19-W-2
  0
3DFACE
  8
AIM0015_AIM0117
 62
143
 10
       23.47846
 20
       -4.01922
 30
        7.86480
 11
       23.47846
 21
       -4.01922
 31
        5.36480
 12
       27.70606
 22
       -4.01922
 32
        5.36480
 13
       27.70606
 23
       -4.01922
 33
        7.86480
999
AIM0015:AIM0117:W-3-4-I-W-22
  0
3DFACE
  8
AIM0015_AIM0117
 62
 43
 10
       13.75226
 20
       11.14458
 30
        7.92480
 11
       13.75226
 21
        6.64878
 31
        7.92480
 12
       13.75226
 22
        6.64878
 32
        8.43980
 13
       13.75226
 23
        6.64878
 33
        8.43980
  0
3DFACE
  8
AIM0015_AIM0117
 62
 43
 10
       13.75226
 20
       11.14458
 30
        7.92480
 11
       13.75226
 21
        6.64878
 31
        8.43980
 12
       13.75226
 22
       11.22078
 32
        8.43980
 13
       13.75226
 23
       11.22078
 33
        8.43980
  0
3DFACE
  8
AIM0015_AIM0117
 62
 43
 10
       13.75226
 20
       11.14458
 30
        7.92480
 11
       13.75226
 21
       11.22078
 31
        8.43980
 12
       13.75226
 22
       11.22078
 32
        3.96240
 13
       13.75226
 23
       11.22078
 33
        3.96240
  0
3DFACE
  8
AIM0015_AIM0117
 62
 43
 10
       13.75226
 20
       11.14458
 30
        7.92480
 11
       13.75226
 21
       11.22078
 31
        3.96240
 12
       13.75226
 22
       11.14458
 32
        3.96240
 13
       13.75226
 23
       11.14458
 33
        3.96240
999
AIM0015:AIM0117:W-3-4-I-W-23
  0
3DFACE
  8
AIM0015_AIM0117
 62
 43
 10
       13.75226
 20
       11.14458
 30
        3.96240
 11
       13.75226
 21
        6.64878
 31
        3.96240
 12
       13.75226
 22
        6.64878
 32
        7.92480
 13
       13.75226
 23
       11.14458
 33
        7.92480
999
AIM0015:AIM0117:W-3-5-I-W-24
  0
3DFACE
  8
AIM0015_AIM0117
 62
 43
 10
       13.75226
 20
       -4.01922
 30
        8.43980
 11
       13.75226
 21
        6.64878
 31
        8.43980
 12
       13.75226
 22
        6.64878
 32
        7.92480
 13
       13.75226
 23
        6.64878
 33
        7.92480
  0
3DFACE
  8
AIM0015_AIM0117
 62
 43
 10
       13.75226
 20
       -4.01922
 30
        8.43980
 11
       13.75226
 21
        6.64878
 31
        7.92480
 12
       13.75226
 22
       -3.94302
 32
        7.92480
 13
       13.75226
 23
       -3.94302
 33
        7.92480
  0
3DFACE
  8
AIM0015_AIM0117
 62
 43
 10
       13.75226
 20
       -4.01922
 30
        3.96200
 11
       13.75226
 21
       -4.01922
 31
        8.43980
 12
       13.75226
 22
       -3.94302
 32
        7.92480
 13
       13.75226
 23
       -3.94302
 33
        7.92480
  0
3DFACE
  8
AIM0015_AIM0117
 62
 43
 10
       13.75226
 20
       -4.01922
 30
        3.96200
 11
       13.75226
 21
       -3.94302
 31
        7.92480
 12
       13.75226
 22
       -3.94302
 32
        3.96240
 13
       13.75226
 23
       -3.94302
 33
        3.96240
  0
3DFACE
  8
AIM0015_AIM0117
 62
 43
 10
       13.75226
 20
        6.64878
 30
        3.96200
 11
       13.75226
 21
       -4.01922
 31
        3.96200
 12
       13.75226
 22
       -3.94302
 32
        3.96240
 13
       13.75226
 23
       -3.94302
 33
        3.96240
999
AIM0015:AIM0117:W-3-5-I-W-25
  0
3DFACE
  8
AIM0015_AIM0117
 62
 43
 10
       13.75226
 20
        6.64878
 30
        3.96240
 11
       13.75226
 21
       -3.94302
 31
        3.96240
 12
       13.75226
 22
       -3.94302
 32
        7.92480
 13
       13.75226
 23
        6.64878
 33
        7.92480
999
AIM0015:AIM0117:T-3-E-R-20
  0
3DFACE
  8
AIM0015_AIM0117
 62
 15
 10
       13.75226
 20
       11.22078
 30
        8.43980
 11
       13.75226
 21
       -4.01922
 31
        8.43980
 12
       28.99226
 22
       -4.01922
 32
        8.43980
 13
       28.99226
 23
       11.22078
 33
        8.43980
999
AIM0015:AIM0033:N-1-E-W-1
  0
3DFACE
  8
AIM0015_AIM0033
 62
 43
 10
       13.75226
 20
       11.22078
 30
        0.00000
 11
        1.56027
 21
       11.22078
 31
        0.00000
 12
        1.56027
 22
       11.22078
 32
        3.96240
 13
       13.75226
 23
       11.22078
 33
        3.96240
999
AIM0015:AIM0033:N-1-E-W-1-W-1
  0
3DFACE
  8
AIM0015_AIM0033
 62
143
 10
        6.47407
 20
       11.22078
 30
        1.40240
 11
        2.24647
 21
       11.22078
 31
        1.40240
 12
        2.24647
 22
       11.22078
 32
        3.90240
 13
        6.47407
 23
       11.22078
 33
        3.90240
999
AIM0015:AIM0033:N-1-E-W-1-W-2
  0
3DFACE
  8
AIM0015_AIM0033
 62
143
 10
       12.76606
 20
       11.22078
 30
        1.40240
 11
        8.53847
 21
       11.22078
 31
        1.40240
 12
        8.53847
 22
       11.22078
 32
        3.90240
 13
       12.76606
 23
       11.22078
 33
        3.90240
999
AIM0015:AIM0033:W-1-E-W-2
  0
3DFACE
  8
AIM0015_AIM0033
 62
 43
 10
        1.56027
 20
       11.22078
 30
        0.00000
 11
        1.56027
 21
        0.55278
 31
        0.00000
 12
        1.56027
 22
        0.55278
 32
        3.96200
 13
        1.56027
 23
        0.55278
 33
        3.96200
  0
3DFACE
  8
AIM0015_AIM0033
 62
 43
 10
        1.56027
 20
       11.22078
 30
        0.00000
 11
        1.56027
 21
        0.55278
 31
        3.96200
 12
        1.56027
 22
        6.64878
 32
        3.96200
 13
        1.56027
 23
        6.64878
 33
        3.96200
  0
3DFACE
  8
AIM0015_AIM0033
 62
 43
 10
        1.56027
 20
       11.22078
 30
        0.00000
 11
        1.56027
 21
        6.64878
 31
        3.96200
 12
        1.56027
 22
       11.22078
 32
        3.96240
 13
        1.56027
 23
       11.22078
 33
        3.96240
999
AIM0015:AIM0033:W-1-E-W-2-W-1
  0
3DFACE
  8
AIM0015_AIM0033
 62
143
 10
        1.56027
 20
       10.53058
 30
        1.40240
 11
        1.56027
 21
        7.31098
 31
        1.40240
 12
        1.56027
 22
        7.31098
 32
        3.90240
 13
        1.56027
 23
       10.53058
 33
        3.90240
999
AIM0015:AIM0033:W-1-E-W-2-W-2
  0
3DFACE
  8
AIM0015_AIM0033
 62
143
 10
        1.56027
 20
        5.26258
 30
        1.40240
 11
        1.56027
 21
        2.04298
 31
        1.40240
 12
        1.56027
 22
        2.04298
 32
        3.90240
 13
        1.56027
 23
        5.26258
 33
        3.90240
999
AIM0015:AIM0033:S-1-2-I-W-4
  0
3DFACE
  8
AIM0015_AIM0033
 62
 43
 10
        1.56027
 20
        0.55278
 30
        3.96200
 11
        1.56027
 21
        0.55278
 31
        0.00000
 12
       13.75226
 22
        0.55278
 32
        0.00000
 13
       13.75226
 23
        0.55278
 33
        3.96200
999
AIM0015:AIM0033:E-1-3-I-W-5
  0
3DFACE
  8
AIM0015_AIM0033
 62
 43
 10
       13.75226
 20
        0.55278
 30
        3.96200
 11
       13.75226
 21
        0.55278
 31
        0.00000
 12
       13.75226
 22
       11.22078
 32
        0.00000
 13
       13.75226
 23
       11.22078
 33
        0.00000
  0
3DFACE
  8
AIM0015_AIM0033
 62
 43
 10
       13.75226
 20
       11.22078
 30
        0.00000
 11
       13.75226
 21
       11.22078
 31
        3.96240
 12
       13.75226
 22
        6.64878
 32
        3.96240
 13
       13.75226
 23
        6.64878
 33
        3.96240
  0
3DFACE
  8
AIM0015_AIM0033
 62
 43
 10
       13.75226
 20
        0.55278
 30
        3.96200
 11
       13.75226
 21
       11.22078
 31
        0.00000
 12
       13.75226
 22
        6.64878
 32
        3.96240
 13
       13.75226
 23
        6.64878
 33
        3.96240
999
AIM0015:AIM0033:S-1-5-I-W-8
  0
3DFACE
  8
AIM0015_AIM0033
 62
 43
 10
        1.56027
 20
        6.64878
 30
        3.96240
 11
       13.75226
 21
        6.64878
 31
        3.96200
 12
       13.75226
 22
        6.64878
 32
        3.96240
 13
       13.75226
 23
        6.64878
 33
        3.96240
999
AIM0015:AIM0033:T-1-4-I-F-6
  0
3DFACE
  8
AIM0015_AIM0033
 62
 15
 10
       13.75226
 20
       11.22078
 30
        3.96240
 11
        1.56027
 21
       11.22078
 31
        3.96240
 12
        1.56027
 22
        6.64878
 32
        3.96240
 13
       13.75226
 23
        6.64878
 33
        3.96240
999
AIM0015:AIM0033:X-1-5-I-O-7
  0
3DFACE
  8
AIM0015_AIM0033
 62
 15
 10
        1.56027
 20
        6.64878
 30
        3.96200
 11
        1.56027
 21
        0.55278
 31
        3.96200
 12
       13.75226
 22
        0.55278
 32
        3.96200
 13
       13.75226
 23
        6.64878
 33
        3.96200
999
AIM0024:AIM0164:W-3-4-I-W-22_REVERSED
  0
3DFACE
  8
AIM0024_AIM0164
 62
 43
 10
       13.75226
 20
        6.64878
 30
        7.92480
 11
       13.75226
 21
       11.14458
 31
        7.92480
 12
       13.75226
 22
       11.14458
 32
        3.96240
 13
       13.75226
 23
       11.14458
 33
        3.96240
999
AIM0024:AIM0164:W-3-4-I-W-23_REVERSED
  0
3DFACE
  8
AIM0024_AIM0164
 62
 43
 10
       13.75226
 20
        6.64878
 30
        3.96240
 11
       13.75226
 21
       11.14458
 31
        3.96240
 12
       13.75226
 22
       11.14458
 32
        7.92480
 13
       13.75226
 23
        6.64878
 33
        7.92480
999
AIM0024:AIM0164:N-4-E-W-26
  0
3DFACE
  8
AIM0024_AIM0164
 62
 43
 10
       13.75226
 20
       11.22078
 30
        3.96240
 11
        1.56027
 21
       11.22078
 31
        3.96240
 12
        1.56027
 22
       11.22078
 32
        8.43980
 13
       13.75226
 23
       11.22078
 33
        8.43980
999
AIM0024:AIM0164:N-4-E-W-26-W-1
  0
3DFACE
  8
AIM0024_AIM0164
 62
143
 10
        6.47407
 20
       11.22078
 30
        5.36480
 11
        2.24647
 21
       11.22078
 31
        5.36480
 12
        2.24647
 22
       11.22078
 32
        7.86480
 13
        6.47407
 23
       11.22078
 33
        7.86480
999
AIM0024:AIM0164:N-4-E-W-26-W-2
  0
3DFACE
  8
AIM0024_AIM0164
 62
143
 10
       12.76606
 20
       11.22078
 30
        5.36480
 11
        8.53847
 21
       11.22078
 31
        5.36480
 12
        8.53847
 22
       11.22078
 32
        7.86480
 13
       12.76606
 23
       11.22078
 33
        7.86480
999
AIM0024:AIM0164:W-4-E-W-27
  0
3DFACE
  8
AIM0024_AIM0164
 62
 43
 10
        1.56027
 20
       11.22078
 30
        3.96240
 11
        1.56027
 21
        6.64878
 31
        3.96240
 12
        1.56027
 22
        6.64878
 32
        8.43980
 13
        1.56027
 23
       11.22078
 33
        8.43980
999
AIM0024:AIM0164:W-4-E-W-27-W-1
  0
3DFACE
  8
AIM0024_AIM0164
 62
143
 10
        1.56027
 20
       10.53058
 30
        5.36480
 11
        1.56027
 21
        7.31098
 31
        5.36480
 12
        1.56027
 22
        7.31098
 32
        7.86480
 13
        1.56027
 23
       10.53058
 33
        7.86480
999
AIM0024:AIM0164:S-4-5-I-W-29
  0
3DFACE
  8
AIM0024_AIM0164
 62
 43
 10
        1.56027
 20
        6.64878
 30
        8.43980
 11
        1.56027
 21
        6.64878
 31
        3.96240
 12
       13.75226
 22
        6.64878
 32
        3.96240
 13
       13.75226
 23
        6.64878
 33
        8.43980
999
AIM0024:AIM0164:T-1-4-I-F-6_REVERSED
  0
3DFACE
  8
AIM0024_AIM0164
 62
 15
 10
        1.56027
 20
        6.64878
 30
        3.96240
 11
       13.75226
 21
        6.64878
 31
        3.96240
 12
       13.75226
 22
       11.22078
 32
        3.96240
 13
        1.56027
 23
       11.22078
 33
        3.96240
999
AIM0024:AIM0164:T-4-E-R-28
  0
3DFACE
  8
AIM0024_AIM0164
 62
 15
 10
        1.56027
 20
       11.22078
 30
        8.43980
 11
        1.56027
 21
        6.64878
 31
        8.43980
 12
       13.75226
 22
        6.64878
 32
        8.43980
 13
       13.75226
 23
       11.22078
 33
        8.43980
999
AIM0015:AIM0075:S-1-2-I-W-4_REVERSED
  0
3DFACE
  8
AIM0015_AIM0075
 62
 43
 10
        1.56027
 20
        0.55278
 30
        0.00000
 11
        1.56027
 21
        0.55278
 31
        3.96200
 12
       13.75226
 22
        0.55278
 32
        3.96200
 13
       13.75226
 23
        0.55278
 33
        0.00000
999
AIM0015:AIM0075:S-2-E-W-9
  0
3DFACE
  8
AIM0015_AIM0075
 62
 43
 10
        1.56027
 20
       -4.01922
 30
        3.96200
 11
        1.56027
 21
       -4.01922
 31
        0.00000
 12
       13.75226
 22
       -4.01922
 32
        0.00000
 13
       13.75226
 23
       -4.01922
 33
        3.96200
999
AIM0015:AIM0075:S-2-E-W-9-W-1
  0
3DFACE
  8
AIM0015_AIM0075
 62
143
 10
        2.24647
 20
       -4.01922
 30
        3.90240
 11
        2.24647
 21
       -4.01922
 31
        1.40240
 12
        6.47407
 22
       -4.01922
 32
        1.40240
 13
        6.47407
 23
       -4.01922
 33
        3.90240
999
AIM0015:AIM0075:S-2-E-W-9-W-2
  0
3DFACE
  8
AIM0015_AIM0075
 62
143
 10
        8.53847
 20
       -4.01922
 30
        3.90240
 11
        8.53847
 21
       -4.01922
 31
        1.40240
 12
       12.76606
 22
       -4.01922
 32
        1.40240
 13
       12.76606
 23
       -4.01922
 33
        3.90240
999
AIM0015:AIM0075:W-2-E-W-10
  0
3DFACE
  8
AIM0015_AIM0075
 62
 43
 10
        1.56027
 20
        0.55278
 30
        0.00000
 11
        1.56027
 21
       -4.01922
 31
        0.00000
 12
        1.56027
 22
       -4.01922
 32
        3.96200
 13
        1.56027
 23
        0.55278
 33
        3.96200
999
AIM0015:AIM0075:W-2-E-W-10-W-1
  0
3DFACE
  8
AIM0015_AIM0075
 62
143
 10
        1.56027
 20
       -0.12342
 30
        1.40240
 11
        1.56027
 21
       -3.34302
 31
        1.40240
 12
        1.56027
 22
       -3.34302
 32
        3.90240
 13
        1.56027
 23
       -0.12342
 33
        3.90240
999
AIM0015:AIM0075:E-2-3-I-W-12
  0
3DFACE
  8
AIM0015_AIM0075
 62
 43
 10
       13.75226
 20
       -4.01922
 30
        3.96200
 11
       13.75226
 21
       -4.01922
 31
        0.00000
 12
       13.75226
 22
        0.55278
 32
        0.00000
 13
       13.75226
 23
        0.55278
 33
        3.96200
999
AIM0015:AIM0075:X-2-5-I-O-13
  0
3DFACE
  8
AIM0015_AIM0075
 62
 15
 10
        1.56027
 20
        0.55278
 30
        3.96200
 11
        1.56027
 21
       -4.01922
 31
        3.96200
 12
       13.75226
 22
       -4.01922
 32
        3.96200
 13
       13.75226
 23
        0.55278
 33
        3.96200
  0
ENDSEC
  0
EOF
